/*--------------------------------*- C++ -*----------------------------------*\
| =========                 |                                                 |
| \\      /  F ield         | OpenFOAM: The Open Source CFD Toolbox           |
|  \\    /   O peration     | Version:  5                                     |
|   \\  /    A nd           | Web:      www.OpenFOAM.org                      |
|    \\/     M anipulation  |                                                 |
\*---------------------------------------------------------------------------*/
FoamFile
{
    version     2.0;
    format      ascii;
    class       dictionary;
    object      blockMeshDict;
}
// * * * * * * * * * * * * * * * * * * * * * * * * * * * * * * * * * * * * * //
convertToMeters 0.01;

xMin 0;
xMax 0.825;
yMin 0;
yMax 2.325;
zMin 0;
zMax 0.0025;
xD 0.775;
yDi 0.3625;
yDii 0.7625;
yDiii 1.5625;
yDiv 1.9625;

fNx 20;
fNy 160;
Ny 320;
Nx 300;
Ty 150;

vertices
(
    ($xMin $yMin $zMax)
	($xD $yMin $zMax)
	($xD $yDi $zMax)
	($xMax $yDi $zMax)
	($xMax $yDii $zMax)
	($xMax $yDiii $zMax)
	($xMax $yDiv $zMax)
	($xD $yDiv $zMax)
	($xD $yMax $zMax)
	($xMin $yMax $zMax)
	($xD $yDiii $zMax)
	($xD $yDii $zMax)
	($xMin $yDii $zMax)
	($xMin $yDiii $zMax)
	($xMin $yDiv $zMax)
	($xMin $yDi $zMax)

	($xMin $yMin $zMin)
    ($xD $yMin $zMin)
    ($xD $yDi $zMin)
    ($xMax $yDi $zMin)
    ($xMax $yDii $zMin)
    ($xMax $yDiii $zMin)
    ($xMax $yDiv $zMin)
    ($xD $yDiv $zMin)
    ($xD $yMax $zMin)
    ($xMin $yMax $zMin)
    ($xD $yDiii $zMin)
    ($xD $yDii $zMin)
	($xMin $yDii $zMin)
    ($xMin $yDiii $zMin)
    ($xMin $yDiv $zMin)
    ($xMin $yDi $zMin)
);

blocks
(
    hex (9 8 7 14 25 24 23 30)
	test_area
    ($Nx $Ty 1)
    simpleGrading (1 1 1)

    hex (15 2 1 0 31 18 17 16)
    test_area
    ($Nx $Ty 1)
    simpleGrading (1 1 1)

	hex (10 5 4 11 26 21 20 27)
    test_area
    ($fNx $Ny 1)
    simpleGrading (1 1 1)

	hex (13 10 11 12 29 26 27 28)
    test_area
    ($Nx $Ny 1)
    simpleGrading (1 1 1)

	hex (12 11 2 15 28 27 18 31)
    test_area
    ($Nx $fNy 1)
    simpleGrading (1 1 1)

	hex (14 7 10 13 30 23 26 29)
    test_area
    ($Nx $fNy 1)
    simpleGrading (1 1 1)

    hex (7 6 5 10 23 22 21 26)
    fluid_area
    ($fNx $fNy 1)
    simpleGrading (1 1 1)

    hex (11 4 3 2 27 20 19 18)
    fluid_area
    ($fNx $fNy 1)
    simpleGrading (1 1 1)
);

edges
(
);

boundary
(
    inlet
    {
        type patch;
        faces
        (
            (6 5 21 22)
        );
    }
    outlet
    {
        type patch;
        faces
        (
            (4 3 19 20)
        );
    }
    Wall
    {
        type wall;
        faces
        (
            (9 8 24 25)
			(7 6 22 23)
			(2 3 19 18)
			(0 1 17 16)
			(15 0 16 31)
			(12 15 31 28)
			(13 12 28 29)
			(14 13 29 30)
			(9 14 30 25)
        );
    }
    right
    {
        type symmetry;
        faces
        (
            (8 7 23 24)
			(2 1 17 18)
			(5 4 20 21)
        );
    }
    frontAndBack
    {
        type empty;
        faces
        (
            (14 7 8 9)
			(30 23 24 25)
			(13 10 7 14)
			(29 26 23 30)
			(10 5 6 7)
			(26 21 22 23)
			(12 11 10 13)
			(28 27 26 29)
			(11 4 5 10)
			(27 20 21 26)
			(15 2 11 12)
			(31 18 27 28)
			(2 3 4 11)
			(18 19 20 27)
			(0 1 2 15)
			(16 17 18 31)
        );
    }
);

mergePatchPairs
(
);
// ************************************************************************* //
