/*--------------------------------*- C++ -*----------------------------------*\
| =========                 |                                                 |
| \\      /  F ield         | OpenFOAM: The Open Source CFD Toolbox           |
|  \\    /   O peration     | Version:  5                                     |
|   \\  /    A nd           | Web:      www.OpenFOAM.org                      |
|    \\/     M anipulation  |                                                 |
\*---------------------------------------------------------------------------*/
FoamFile
{
    version     2.0;
    format      ascii;
    class       dictionary;
    object      blockMeshDict;
}
// * * * * * * * * * * * * * * * * * * * * * * * * * * * * * * * * * * * * * //
convertToMeters 0.01;

xMin 0;
xMax 1.65;
yMin 0;
yMax 4.65;
zMin 0;
zMax 0.0025;
xD 1.25;
yDi 0.725;
yDii 1.525;
yDiii 3.125;
yDiv 3.925;

fNx 40;
fNy 80;
tNy 73;
Ny 160;
Nx 125;

vertices
(
    ($xMin $yMin $zMax)
	($xD $yMin $zMax)
	($xMax $yMin $zMax)
	($xMax $yDi $zMax)
	($xD $yDi $zMax)
	($xD $yDii $zMax)
	($xMax $yDii $zMax)
	($xD $yDiii $zMax)
	($xMax $yDiii $zMax)
	($xMax $yDiv $zMax)
	($xD $yDiv $zMax)
	($xMax $yMax $zMax)
	($xD $yMax $zMax)
	($xMin $yMax $zMax)
	($xMin $yDiv $zMax)
	($xMin $yDiii $zMax)
	($xMin $yDii $zMax)
	($xMin $yDi $zMax)

	($xMin $yMin $zMin)
    ($xD $yMin $zMin)
    ($xMax $yMin $zMin)
    ($xMax $yDi $zMin)
    ($xD $yDi $zMin)
    ($xD $yDii $zMin)
    ($xMax $yDii $zMin)
    ($xD $yDiii $zMin)
    ($xMax $yDiii $zMin)
    ($xMax $yDiv $zMin)
    ($xD $yDiv $zMin)
    ($xMax $yMax $zMin)
    ($xD $yMax $zMin)
    ($xMin $yMax $zMin)
    ($xMin $yDiv $zMin)
    ($xMin $yDiii $zMin)
    ($xMin $yDii $zMin)
    ($xMin $yDi $zMin)
);

blocks
(
    hex (17 4 1 0 35 22 19 18)
	test_area
    ($Nx $tNy 1)
    simpleGrading (1 1 1)

	hex (16 5 4 17 34 23 22 35)
    test_area
    ($Nx $fNy 1)
    simpleGrading (1 1 1)

	hex (15 7 5 16 33 25 23 34)
    test_area
    ($Nx $Ny 1)
    simpleGrading (1 1 1)
	
	hex (7 8 6 5 25 26 24 23)
    test_area
    ($fNx $Ny 1)
    simpleGrading (1 1 1)

    hex (14 10 7 15 32 28 25 33)
    test_area
    ($Nx $fNy 1)
    simpleGrading (1 1 1)

	hex (13 12 10 14 31 30 28 32)
    test_area
    ($Nx $tNy 1)
    simpleGrading (1 1 1)

	hex (12 11 9 10 30 29 27 28)
    test_area
    ($fNx $tNy 1)
    simpleGrading (1 1 1)

	hex (10 9 8 7 28 27 26 25)
    fluid_area
    ($fNx $fNy 1)
    simpleGrading (1 1 1)

	hex (5 6 3 4 23 24 21 22)
    fluid_area
    ($fNx $fNy 1)
    simpleGrading (1 1 1)

	hex (4 3 2 1 22 21 20 19)
    test_area
    ($fNx $tNy 1)
    simpleGrading (1 1 1)
);

edges
(
);

boundary
(
    inlet
    {
        type patch;
        faces
        (
            (9 8 26 27)
        );
    }
    outlet
    {
        type patch;
        faces
        (
            (6 3 21 24)
        );
    }
    Wall
    {
        type wall;
        faces
        (
            (0 1 19 18)
			(1 2 20 19)
			(12 11 29 30)
			(13 12 30 31)
			(13 14 32 31)
			(14 15 33 32)
			(15 16 34 33)
			(16 17 35 34)
			(17 0 18 35)
        );
    }
    right
    {
        type symmetry;
        faces
        (
			(11 9 27 29)
			(3 2 20 21)	
			(8 6 24 26)
        );
    }
    frontAndBack
    {
        type empty;
        faces
        (
            (13 12 10 14)
			(31 30 28 32)
			(12 11 9 10)
			(30 29 27 28)
			(14 10 7 15)
			(32 28 25 33)
			(10 9 8 7)
			(28 27 26 25)
			(15 7 5 16)
			(33 25 23 34)
			(16 5 4 17)
			(34 23 22 35)
			(5 6 3 4)
			(23 24 21 22)
			(4 3 2 1)
			(22 21 20 19)
			(17 4 1 0)
			(35 22 19 18)
			(7 8 6 5)
			(25 26 24 23)
        );
    }
);

mergePatchPairs
(
);
// ************************************************************************* //
