/*--------------------------------*- C++ -*----------------------------------*\
| =========                 |                                                 |
| \\      /  F ield         | OpenFOAM: The Open Source CFD Toolbox           |
|  \\    /   O peration     | Version:  5                                     |
|   \\  /    A nd           | Web:      www.OpenFOAM.org                      |
|    \\/     M anipulation  |                                                 |
\*---------------------------------------------------------------------------*/
FoamFile
{
    version     2.0;
    format      ascii;
    class       dictionary;
    location    "constant";
    object      geometricSizeControlDict;
}
// * * * * * * * * * * * * * * * * * * * * * * * * * * * * * * * * * * * * * //

general
{
    aggregationKSFactor      40;      // KS sharpness used to aggregate local solid-size violations.
    smoothPositiveEps        1e-4;    // Smooth positive-part epsilon used in the local violation functions.
    writeDiagnosticFields    false;   // Write solid-indicator/filter/violation fields for debugging.
    projectionBeta           4.0;     // Mild projection used only by the geometry-control channel xg.
    projectionEta            -1;      // Geometry-channel threshold. Negative reuses the current physics eta5.
    activationMinIter        60;      // Earliest optimization iteration where geometry control may activate.
    activationGrayEnter      0.30;    // Open the gray gate once the gray fraction drops below this value.
    activationGrayExit       0.35;    // Keep the gray gate latched until the gray fraction rises above this value.
    activationXhStepMax      0.03;    // Activate only once the projected design step has settled below this value.
    activationHoldIters      5;       // Require this many consecutive satisfied gating iterations before activation.
    rampIters                20;      // Ramp the geometry-constraint MMA weight over this many iterations.
    freezeHardeningWhileInfeasible true; // Freeze further alpha/beta hardening while an active geometry constraint is violated.
    constraintScaleTarget    0.05;    // MMA normalization floor used for geometric constraints after stage activation.
}

minSolidGeometryControl
{
    active                   false;   // Solid-only minimum-size control. Penalizes thin unsupported solid ligaments.
    featureSize              3.0;     // Feature-size radius in the same effective units as optProperties.filterR.
    fillFraction             0.55;    // Require at least this local solid occupancy around nominal solid cells.
    tolerance                1e-4;    // Allow this much aggregated violation before the MMA constraint activates.
    constraintWeight         1.0;     // Relative weight applied to the MMA min-solid constraint.
}

maxSolidGeometryControl
{
    active                   false;   // Solid-only maximum-size control. Penalizes overly large solid neighborhoods.
    featureSize              9.0;     // Feature-size radius in the same effective units as optProperties.filterR.
    fillFraction             0.85;    // Local solid occupancy ceiling used to trigger block/rib breakup.
    tolerance                1e-4;    // Allow this much aggregated violation before the MMA constraint activates.
    constraintWeight         1.0;     // Relative weight applied to the MMA max-solid constraint.
}

// * * * * * * * * * * * * * * * * * * * * * * * * * * * * * * * * * * * * * //
