/*--------------------------------*- C++ -*----------------------------------*\
| =========                 |                                                 |
| \\      /  F ield         | OpenFOAM: The Open Source CFD Toolbox           |
|  \\    /   O peration     | Version:  5                                     |
|   \\  /    A nd           | Web:      www.OpenFOAM.org                      |
|    \\/     M anipulation  |                                                 |
\*---------------------------------------------------------------------------*/
FoamFile
{
    version     2.0;
    format      ascii;
    class       dictionary;
    location    "constant";
    object      tuneOptParameters;
}
// * * * * * * * * * * * * * * * * * * * * * * * * * * * * * * * * * * * * * //

frameworkSwitches
{
    useFrozenTurbulenceAdjoint      true;                  // Use the implemented frozen-turbulence adjoint path.
    useKEpsilonModel                true;                  // Use the baseline k-epsilon turbulence model.
    useWrayAgarwalFallback          false;                 // Unimplemented fallback model; keep off.
    usePorosityWallDistance         true;                  // Use porosity-aware wall distance for blocked regions.
    useMeshWaveWallDistanceFallback false;                 // Mesh-wave fallback wall distance; only use if needed.
    useBrinkmanSinkInKEpsilon       true;                  // Include porous Brinkman damping in turbulence equations.
    useSplitRAMPControls            false;                 // Use separate qAlpha/qKappa/qHeat continuation controls.
    useSingleQFallback              true;                  // Use one shared q continuation parameter instead.
    useTurbulentThermalDiffusivity  true;                  // Include turbulent thermal diffusivity in heat transport.
    usePowerConstraintRelaxation    true;                  // Relax the power constraint early, then tighten it.
    useGCMMA                        false;                 // GCMMA path is not implemented here.
    useFullAdjointSymmetricStress   true;                  // Use the stronger adjoint stress term when probing sensitivity fidelity.
}

objectiveSwitches
{
    useLogMeanTObjective            false;                 // Optimize log(mean T) instead of mean T.
    useKSHotspotObjective           false;                 // Optimize a hotspot-focused KS temperature measure.
    useVarianceObjective            false;                 // Optimize temperature uniformity instead of average level.
    useRobustMultiCaseObjective     false;                 // Multi-case robust objective; not implemented for this branch.
}

continuationSwitches
{
    useStagnationTriggeredBeta      false;                 // Only harden beta after stagnation instead of every allowed step.
    useLateStageFilterRCap          true;                  // Re-enable late filter-radius taper so large solid ribs can be carved down before the topology freezes.
}

experimentControl
{
    profile                         branchRefinement400;   // Active continuation preset to apply at runtime.
    forceContinuationHardening      false;                 // Ignore the feasibility gate and always harden continuation.
    forceContinuationHardeningUntilIter 0;                 // Keep hardening forced until this iteration.
    forceContinuationHardeningUntilBeta -1;                // Keep hardening forced until beta reaches this value.
    stopContinuationHardeningBelowGrayFraction 0.10;       // Fully stop hardening once gray is already low enough.
    lateStageStrictGateBelowGrayFraction 0.14;             // Switch to a stricter power-feasibility gate below this gray level.
    lateStageContinuationFeasibilityTol 0.98;              // Stricter late-stage PowerDiss/limit tolerance.
    lateStageRefinementStartIter   160;                    // Start late refinement taper a bit earlier so the lower late beta ceiling engages before lock-in.
    lateStageRefinementBelowGrayFraction 0.18;             // Also start refinement taper once gray drops below this level.
    lateStageBetaRampFactor        1.0;                    // Maintain beta hardening rate to ensure full binarization.
    lateStageAlphaRampFactor       1.05;                   // Use geometric growth (1.05 factor) to drive alphaMax to high penalization.
    lateStageMaxBeta               100;                    // Allow beta to reach max sharpness to completely polarize sub-branches.
    lateStageFilterRStartIter      110;                    // Trigger the smaller late filter earlier while the channel skeleton is still actively evolving.
    lateStageFilterRCap            2.5;                    // Match laminar filter radius (2.5) to capture and preserve all fine sub-branches.
    laggingGrayCollapseStartIter   140;                    // Start checking for stalled gray collapse from this iteration.
    laggingGrayCollapseAboveGrayFraction 0.30;             // Only treat the run as stalled while gray is still this high.
    laggingGrayCollapseBelowXhStepMax 0.06;                // Stagnation test: topology motion is too small below this xhStepMax.
    laggingGrayCollapseMinGrayDrop 5e-3;                   // Stagnation test: gray is barely decreasing below this per-step drop.
    laggingGrayCollapsePauseInterval 4;                    // Even when throttled, allow one hardening pulse every N steps.
    overactiveTopologyStartIter    180;                    // Start checking for overactive late topology from this iteration.
    overactiveTopologyBelowGrayFraction 0.16;              // Only apply the overactive throttle once gray is already low.
    overactiveTopologyAboveXhStepMax 0.20;                 // Pause hardening when recent xh motion is already too violent.
}

adjointControl
{
    adjointMomentumSweeps           30;                    // Slightly higher adjoint fidelity for stronger late-stage branch sensitivities.
    adjointExplicitStressScale      0.30;                  // Conservative increase to strengthen the symmetric-stress contribution without reverting to runaway.
    resetAdjointsEachIteration      true;                  // Reinitialize adjoints each loop for robustness.
    stopOnAdjointRunaway            true;                  // Abort optimization if adjoint magnitudes blow up.
}

convergenceControl
{
    optPowerConstraintWeight        2.0;                   // Relative penalty weight on power-constraint violation.
    optPowerViolationScaleExponent  1.0;                   // Nonlinear scaling exponent for power-violation weighting.
}

// * * * * * * * * * * * * * * * * * * * * * * * * * * * * * * * * * * * * * //
