/*--------------------------------*- C++ -*----------------------------------*\
| =========                 |                                                 |
| \\      /  F ield         | OpenFOAM: The Open Source CFD Toolbox           |
|  \\    /   O peration     | Version:  5                                     |
|   \\  /    A nd           | Web:      www.OpenFOAM.org                      |
|    \\/     M anipulation  |                                                 |
\*---------------------------------------------------------------------------*/
FoamFile
{
    version     2.0;
    format      ascii;
    class       dictionary;
    location    "constant";
    object      tuneOptParameters;
}
// * * * * * * * * * * * * * * * * * * * * * * * * * * * * * * * * * * * * * //

frameworkSwitches
{
    useFrozenTurbulenceAdjoint      true;  // Use the implemented frozen-turbulence adjoint path.
    useKEpsilonModel                true;  // Use the baseline k-epsilon turbulence model.
    useWrayAgarwalFallback          false; // Unimplemented fallback model; keep off.
    usePorosityWallDistance         true;  // Use porosity-aware wall distance for blocked regions.
    useMeshWaveWallDistanceFallback false; // Mesh-wave fallback wall distance; only use if needed.
    useBrinkmanSinkInKEpsilon       true;  // Include porous Brinkman damping in turbulence equations.
    useSplitRAMPControls            false; // Use separate qAlpha/qKappa/qHeat continuation controls.
    useSingleQFallback              true;  // Use one shared q continuation parameter instead.
    useTurbulentThermalDiffusivity  true;  // Include turbulent thermal diffusivity in heat transport.
    usePowerConstraintRelaxation    true;  // Relax the power constraint early, then tighten it.
    useGCMMA                        false; // GCMMA path is not implemented here.
    useFullAdjointSymmetricStress   false; // Use the stronger adjoint stress term when probing sensitivity fidelity.
}

objectiveSwitches
{
    useLogMeanTObjective            false; // Optimize log(mean T) instead of mean T.
    useKSHotspotObjective           false; // Optimize a hotspot-focused KS temperature measure.
    useVarianceObjective            false; // Optimize temperature uniformity instead of average level.
    useRobustMultiCaseObjective     false; // Multi-case robust objective; not implemented for this branch.
}

continuationSwitches
{
    useStagnationTriggeredBeta      false; // Only harden beta after stagnation instead of every allowed step.
}

// Gray-fraction debugging presets.
// baseline: keep case values unchanged
// laminarGrayRamp: use laminar-style beta/alpha continuation
// relaxedGateGrayRamp: laminar-style continuation with a looser feasibility gate
// betaFloorGrayRamp: relaxed gate plus forced hardening until beta/iter floor
// branchRefinement400: keep the proven early gray-collapse behavior, but taper
// late hardening so Iter 220-400 can keep carving sub-branches instead of
// over-sharpening into speckled micro-islands
// stopContinuationHardeningBelowGrayFraction: optional late-stage ceiling that
// freezes further hardening once the remaining gray volume is already small
// lateStageStrictGate*: optional tighter feasibility gate that takes over once
// gray is already low, so late hardening cannot continue through power
// violations just because the early relaxed gate is still permissive
// lateStageRefinement*: optional taper that scales beta hardening, slows the
// late alpha ramp, and caps beta once the optimizer transitions from primary
// branch creation into fine sub-branch refinement
// laggingGrayCollapse*: optional betaFloorGrayRamp throttle that slows further
// hardening if gray is still high but topology motion has already faded;
// pauseInterval applies a periodic one-step pulse so hardening does not freeze
// permanently while the lag condition remains active
// overactiveTopology*: complementary throttle that pauses further hardening if
// projected topology motion is already too large in the late low-gray regime
// ungatedGrayRamp: laminarGrayRamp + bypass the continuation feasibility gate
// adjointSensitivityProbe: increase adjoint fidelity to test whether weak
// objective/power sensitivities are suppressing topology changes
experimentControl
{
    profile                         branchRefinement400; // Active continuation preset to apply at runtime.
    forceContinuationHardening      false; // Ignore the feasibility gate and always harden continuation.
    forceContinuationHardeningUntilIter 0; // Keep hardening forced until this iteration.
    forceContinuationHardeningUntilBeta -1; // Keep hardening forced until beta reaches this value.
    stopContinuationHardeningBelowGrayFraction 0.10; // Fully stop hardening once gray is already low enough.
    lateStageStrictGateBelowGrayFraction 0.14; // Switch to a stricter power-feasibility gate below this gray level.
    lateStageContinuationFeasibilityTol 0.98; // Stricter late-stage PowerDiss/limit tolerance.
    lateStageRefinementStartIter   220; // Start late refinement taper from this iteration onward.
    lateStageRefinementBelowGrayFraction 0.18; // Also start refinement taper once gray drops below this level.
    lateStageBetaRampFactor        0.25; // Scale betaIncrement during late refinement.
    lateStageAlphaRampFactor       1.0; // Replace late alpha growth factor during refinement.
    lateStageMaxBeta               48; // Cap beta during late refinement to preserve carveable gray.
    laggingGrayCollapseStartIter   140; // Start checking for stalled gray collapse from this iteration.
    laggingGrayCollapseAboveGrayFraction 0.30; // Only treat the run as stalled while gray is still this high.
    laggingGrayCollapseBelowXhStepMax 0.06; // Stagnation test: topology motion is too small below this xhStepMax.
    laggingGrayCollapseMinGrayDrop 5e-3; // Stagnation test: gray is barely decreasing below this per-step drop.
    laggingGrayCollapsePauseInterval 4; // Even when throttled, allow one hardening pulse every N steps.
    overactiveTopologyStartIter    180; // Start checking for overactive late topology from this iteration.
    overactiveTopologyBelowGrayFraction 0.16; // Only apply the overactive throttle once gray is already low.
    overactiveTopologyAboveXhStepMax 0.20; // Pause hardening when recent xh motion is already too violent.
}

adjointControl
{
    adjointMomentumSweeps           20;   // Adjoint momentum iterations per optimization loop.
    resetAdjointsEachIteration      true; // Reinitialize adjoints each loop for robustness.
    stopOnAdjointRunaway            true; // Abort optimization if adjoint magnitudes blow up.
}

// Optimizer stopping controls.
// The optimizer exits early only after the design step, objective drift,
// and constraint violation all remain small for several consecutive loops.
convergenceControl
{
    optPowerConstraintWeight        2.0; // Relative penalty weight on power-constraint violation.
    optPowerViolationScaleExponent  1.0; // Nonlinear scaling exponent for power-violation weighting.
}

// * * * * * * * * * * * * * * * * * * * * * * * * * * * * * * * * * * * * * //
