/*--------------------------------*- C++ -*----------------------------------*\
| =========                 |                                                 |
| \\      /  F ield         | OpenFOAM: The Open Source CFD Toolbox           |
|  \\    /   O peration     | Version:  5                                     |
|   \\  /    A nd           | Web:      www.OpenFOAM.org                      |
|    \\/     M anipulation  |                                                 |
\*---------------------------------------------------------------------------*/
FoamFile
{
    version     2.0;
    format      ascii;
    class       dictionary;
    location    "constant";
    object      tuneOptParameters;
}
// * * * * * * * * * * * * * * * * * * * * * * * * * * * * * * * * * * * * * //

frameworkSwitches
{
    useFrozenTurbulenceAdjoint      true;
    useKEpsilonModel                true;
    useWrayAgarwalFallback          false;
    usePorosityWallDistance         true;
    useMeshWaveWallDistanceFallback false;
    useBrinkmanSinkInKEpsilon       true;
    useSplitRAMPControls            false;
    useSingleQFallback              true;
    useTurbulentThermalDiffusivity  true;
    usePowerConstraintRelaxation    true;
    useGCMMA                        false;
    useFullAdjointSymmetricStress   false;
}

objectiveSwitches
{
    useLogMeanTObjective            false;
    useKSHotspotObjective           false;
    useVarianceObjective            false;
    useRobustMultiCaseObjective     false;
}

continuationSwitches
{
    useStagnationTriggeredBeta      false;
}

// Gray-fraction debugging presets.
// baseline: keep case values unchanged
// laminarGrayRamp: use laminar-style beta/alpha continuation
// relaxedGateGrayRamp: laminar-style continuation with a looser feasibility gate
// betaFloorGrayRamp: relaxed gate plus forced hardening until beta/iter floor
// branchRefinement400: keep the proven early gray-collapse behavior, but taper
// late hardening so Iter 220-400 can keep carving sub-branches instead of
// over-sharpening into speckled micro-islands
// stopContinuationHardeningBelowGrayFraction: optional late-stage ceiling that
// freezes further hardening once the remaining gray volume is already small
// lateStageStrictGate*: optional tighter feasibility gate that takes over once
// gray is already low, so late hardening cannot continue through power
// violations just because the early relaxed gate is still permissive
// lateStageRefinement*: optional taper that scales beta hardening, slows the
// late alpha ramp, and caps beta once the optimizer transitions from primary
// branch creation into fine sub-branch refinement
// laggingGrayCollapse*: optional betaFloorGrayRamp throttle that slows further
// hardening if gray is still high but topology motion has already faded;
// pauseInterval applies a periodic one-step pulse so hardening does not freeze
// permanently while the lag condition remains active
// overactiveTopology*: complementary throttle that pauses further hardening if
// projected topology motion is already too large in the late low-gray regime
// ungatedGrayRamp: laminarGrayRamp + bypass the continuation feasibility gate
// adjointSensitivityProbe: increase adjoint fidelity to test whether weak
// objective/power sensitivities are suppressing topology changes
experimentControl
{
    profile                         branchRefinement400;
    forceContinuationHardening      false;
    forceContinuationHardeningUntilIter 0;
    forceContinuationHardeningUntilBeta -1;
    stopContinuationHardeningBelowGrayFraction 0.10;
    lateStageStrictGateBelowGrayFraction 0.14;
    lateStageContinuationFeasibilityTol 0.98;
    lateStageRefinementStartIter   220;
    lateStageRefinementBelowGrayFraction 0.18;
    lateStageBetaRampFactor        0.25;
    lateStageAlphaRampFactor       1.0;
    lateStageMaxBeta               48;
    laggingGrayCollapseStartIter   140;
    laggingGrayCollapseAboveGrayFraction 0.30;
    laggingGrayCollapseBelowXhStepMax 0.06;
    laggingGrayCollapseMinGrayDrop 5e-3;
    laggingGrayCollapsePauseInterval 4;
    overactiveTopologyStartIter    180;
    overactiveTopologyBelowGrayFraction 0.16;
    overactiveTopologyAboveXhStepMax 0.20;
}

adjointControl
{
    adjointMomentumSweeps           20;
    resetAdjointsEachIteration      true;
    stopOnAdjointRunaway            true;
}

// Optimizer stopping controls.
// The optimizer exits early only after the design step, objective drift,
// and constraint violation all remain small for several consecutive loops.
convergenceControl
{
    optPowerConstraintWeight        2.0;
    optPowerViolationScaleExponent  1.0;
}

// * * * * * * * * * * * * * * * * * * * * * * * * * * * * * * * * * * * * * //
