/*--------------------------------*- C++ -*----------------------------------*\
| =========                 |                                                 |
| \\      /  F ield         | OpenFOAM: The Open Source CFD Toolbox           |
|  \\    /   O peration     | Version:  5                                     |
|   \\  /    A nd           | Web:      www.OpenFOAM.org                      |
|    \\/     M anipulation  |                                                 |
\*---------------------------------------------------------------------------*/
FoamFile
{
    version     2.0;
    format      ascii;
    class       dictionary;
    location    "constant";
    object      tuneOptParameters;
}
// * * * * * * * * * * * * * * * * * * * * * * * * * * * * * * * * * * * * * //

frameworkSwitches
{
    useFrozenTurbulenceAdjoint      true;
    useKEpsilonModel                true;
    useWrayAgarwalFallback          false;
    usePorosityWallDistance         true;
    useMeshWaveWallDistanceFallback false;
    useBrinkmanSinkInKEpsilon       true;
    useSplitRAMPControls            false;
    useSingleQFallback              true;
    useTurbulentThermalDiffusivity  true;
    usePowerConstraintRelaxation    true;
    useGCMMA                        false;
    useFullAdjointSymmetricStress   false;
}

objectiveSwitches
{
    useLogMeanTObjective            false;
    useKSHotspotObjective           false;
    useVarianceObjective            false;
    useRobustMultiCaseObjective     false;
}

continuationSwitches
{
    useStagnationTriggeredBeta      false;
}

// Gray-fraction debugging presets.
// baseline: keep case values unchanged
// laminarGrayRamp: use laminar-style beta/alpha continuation
// relaxedGateGrayRamp: laminar-style continuation with a looser feasibility gate
// betaFloorGrayRamp: relaxed gate plus forced hardening until beta/iter floor
// stopContinuationHardeningBelowGrayFraction: optional late-stage ceiling that
// freezes further hardening once the remaining gray volume is already small
// lateStageStrictGate*: optional tighter feasibility gate that takes over once
// gray is already low, so late hardening cannot continue through power
// violations just because the early relaxed gate is still permissive
// laggingGrayCollapse*: optional betaFloorGrayRamp throttle that slows further
// hardening if gray is still high but topology motion has already faded;
// pauseInterval applies a periodic one-step pulse so hardening does not freeze
// permanently while the lag condition remains active
// overactiveTopology*: complementary throttle that pauses further hardening if
// projected topology motion is already too large in the late low-gray regime
// ungatedGrayRamp: laminarGrayRamp + bypass the continuation feasibility gate
// adjointSensitivityProbe: increase adjoint fidelity to test whether weak
// objective/power sensitivities are suppressing topology changes
experimentControl
{
    profile                         betaFloorGrayRamp;
    forceContinuationHardening      false;
    forceContinuationHardeningUntilIter 0;
    forceContinuationHardeningUntilBeta -1;
    stopContinuationHardeningBelowGrayFraction -1;
    lateStageStrictGateBelowGrayFraction -1;
    lateStageContinuationFeasibilityTol -1;
    laggingGrayCollapseStartIter    0;
    laggingGrayCollapseAboveGrayFraction -1;
    laggingGrayCollapseBelowXhStepMax -1;
    laggingGrayCollapseMinGrayDrop  -1;
    laggingGrayCollapsePauseInterval 1;
    overactiveTopologyStartIter     0;
    overactiveTopologyBelowGrayFraction -1;
    overactiveTopologyAboveXhStepMax -1;
}

adjointControl
{
    adjointMomentumSweeps           20;
    resetAdjointsEachIteration      true;
    stopOnAdjointRunaway            true;
}

// Optimizer stopping controls.
// The optimizer exits early only after the design step, objective drift,
// and constraint violation all remain small for several consecutive loops.
convergenceControl
{
    optPowerConstraintWeight        2.0;
    optPowerViolationScaleExponent  1.0;
}

// * * * * * * * * * * * * * * * * * * * * * * * * * * * * * * * * * * * * * //
