/*--------------------------------*- C++ -*----------------------------------*\
| =========                 |                                                 |
| \\      /  F ield         | OpenFOAM: The Open Source CFD Toolbox           |
|  \\    /   O peration     | Version:  5                                     |
|   \\  /    A nd           | Web:      www.OpenFOAM.org                      |
|    \\/     M anipulation  |                                                 |
\*---------------------------------------------------------------------------*/
FoamFile
{
    version     2.0;
    format      ascii;
    class       dictionary;
    location    "constant";
    object      tuneOptParameters;
}
// * * * * * * * * * * * * * * * * * * * * * * * * * * * * * * * * * * * * * //

frameworkSwitches
{
    useFrozenTurbulenceAdjoint      true;  // Use the implemented frozen-turbulence adjoint path.
    useKEpsilonModel                true;  // Use the baseline k-epsilon turbulence model.
    useWrayAgarwalFallback          false; // Unimplemented fallback model; keep off.
    usePorosityWallDistance         true;  // Use porosity-aware wall distance for blocked regions.
    useMeshWaveWallDistanceFallback false; // Mesh-wave fallback wall distance; only use if needed.
    useBrinkmanSinkInKEpsilon       true;  // Include porous Brinkman damping in turbulence equations.
    useSplitRAMPControls            false; // Use separate qAlpha/qKappa/qHeat continuation controls.
    useSingleQFallback              true;  // Use one shared q continuation parameter instead.
    useTurbulentThermalDiffusivity  true;  // Include turbulent thermal diffusivity in heat transport.
    usePowerConstraintRelaxation    true;  // Relax the power constraint early, then tighten it.
    useGCMMA                        false; // GCMMA path is not implemented here.
    useFullAdjointSymmetricStress   true;  // Use the stronger adjoint stress term when probing sensitivity fidelity.
}

objectiveSwitches
{
    useLogMeanTObjective            false; // Optimize log(mean T) instead of mean T.
    useKSHotspotObjective           false; // Optimize a hotspot-focused KS temperature measure.
    useVarianceObjective            false; // Optimize temperature uniformity instead of average level.
    useRobustMultiCaseObjective     false; // Multi-case robust objective; not implemented for this branch.
}

continuationSwitches
{
    useStagnationTriggeredBeta      false; // Only harden beta after stagnation instead of every allowed step.
}

experimentControl
{
    profile                         branchRefinement400; // Active continuation preset to apply at runtime.
    forceContinuationHardening      false; // Ignore the feasibility gate and always harden continuation.
    forceContinuationHardeningUntilIter 0; // Keep hardening forced until this iteration.
    forceContinuationHardeningUntilBeta -1; // Keep hardening forced until beta reaches this value.
    stopContinuationHardeningBelowGrayFraction 0.10; // Fully stop hardening once gray is already low enough.
    lateStageStrictGateBelowGrayFraction 0.55; // Tighten the power-feasibility gate only after the main branches have formed.
    lateStageContinuationFeasibilityTol 0.98; // Stricter late-stage PowerDiss/limit tolerance.
    lateStageRefinementStartIter   150; // Let the main branches form before slowing continuation.
    lateStageRefinementBelowGrayFraction 0.55; // Start tapering once branching is established rather than while the design is still mostly gray.
    lateStageBetaRampFactor        0.20; // Preserve hardening momentum so the design can still leave the gray regime.
    lateStageAlphaRampFactor       1.0; // Replace late alpha growth factor during refinement.
    lateStageMaxBeta               40; // Cap beta during late refinement to preserve carveable gray.
    lateStageFilterRStartIter      120; // Keep the dictionary filterR through this iteration, then switch to the cap.
    lateStageFilterRCap            6.0; // Late-stage filter-radius cap used after lateStageFilterRStartIter.
    laggingGrayCollapseStartIter   140; // Start checking for stalled gray collapse from this iteration.
    laggingGrayCollapseAboveGrayFraction 0.30; // Only treat the run as stalled while gray is still this high.
    laggingGrayCollapseBelowXhStepMax 0.06; // Stagnation test: topology motion is too small below this xhStepMax.
    laggingGrayCollapseMinGrayDrop 5e-3; // Stagnation test: gray is barely decreasing below this per-step drop.
    laggingGrayCollapsePauseInterval 4; // Even when throttled, allow one hardening pulse every N steps.
    overactiveTopologyStartIter    120; // Begin guarding against topology flipping shortly after branch onset.
    overactiveTopologyBelowGrayFraction 0.75; // Enable the overactive throttle during branch formation, but not in the nearly uniform gray field.
    overactiveTopologyAboveXhStepMax 0.25; // Trigger the throttle sooner if projected topology motion becomes violent.
}

adjointControl
{
    adjointMomentumSweeps           30;   // Slightly higher adjoint fidelity for stronger late-stage branch sensitivities.
    adjointExplicitStressScale      0.30; // Conservative increase to strengthen the symmetric-stress contribution without reverting to runaway.
    adjointSoftFreezeRatio          1000; // Freeze continuation on sustained late adjoint escalation without reacting to smaller transient spikes.
    adjointSoftFreezeGrowthFactor   1.5;  // Require a strong per-iteration growth spike before freezing continuation.
    resetAdjointsEachIteration      true; // Reinitialize adjoints each loop for robustness.
    stopOnAdjointRunaway            true; // Abort optimization if adjoint magnitudes blow up.
}

convergenceControl
{
    optPowerConstraintWeight        2.0; // Relative penalty weight on power-constraint violation.
    optPowerViolationScaleExponent  1.0; // Nonlinear scaling exponent for power-violation weighting.
}

// * * * * * * * * * * * * * * * * * * * * * * * * * * * * * * * * * * * * * //
