/*--------------------------------*- C++ -*----------------------------------*\
| =========                 |                                                 |
| \\      /  F ield         | OpenFOAM: The Open Source CFD Toolbox           |
|  \\    /   O peration     | Version:  5                                     |
|   \\  /    A nd           | Web:      www.OpenFOAM.org                      |
|    \\/     M anipulation  |                                                 |
\*---------------------------------------------------------------------------*/
FoamFile
{
    version     2.0;
    format      ascii;
    class       dictionary;
    location    "constant";
    object      tuneOptParameters;
}
// * * * * * * * * * * * * * * * * * * * * * * * * * * * * * * * * * * * * * //

frameworkSwitches
{
    useFrozenTurbulenceAdjoint      true;                  // Use the implemented frozen-turbulence adjoint path.
    useKEpsilonModel                true;                  // Use the baseline k-epsilon turbulence model.
    useWrayAgarwalFallback          false;                 // Unimplemented fallback model; keep off.
    usePorosityWallDistance         true;                  // Use porosity-aware wall distance for blocked regions.
    useMeshWaveWallDistanceFallback false;                 // Mesh-wave fallback wall distance; only use if needed.
    useBrinkmanSinkInKEpsilon       true;                  // Include porous Brinkman damping in turbulence equations.
    useSplitRAMPControls            false;                 // Use separate qAlpha/qKappa/qHeat continuation controls.
    useSingleQFallback              true;                  // Use one shared q continuation parameter instead.
    useTurbulentThermalDiffusivity  true;                  // Include turbulent thermal diffusivity in heat transport.
    usePowerConstraintRelaxation    true;                  // Relax the power constraint early, then tighten it.
    useGCMMA                        false;                 // GCMMA path is not implemented here.
    useFullAdjointSymmetricStress   true;                  // Use the stronger adjoint stress term when probing sensitivity fidelity.
}

objectiveSwitches
{
    useLogMeanTObjective            false;                 // Optimize log(mean T) instead of mean T.
    useKSHotspotObjective           false;                 // Optimize a hotspot-focused KS temperature measure.
    useVarianceObjective            false;                 // Optimize temperature uniformity instead of average level.
    useRobustMultiCaseObjective     false;                 // Multi-case robust objective; not implemented for this branch.
}

continuationSwitches
{
    useStagnationTriggeredBeta      false;                 // Only harden beta after stagnation instead of every allowed step.
    useLateStageFilterRCap          true;                  // Re-enable late filter-radius taper so large solid ribs can be carved down before the topology freezes.
}

experimentControl
{
    profile                         branchRefinement400;   // Active continuation preset to apply at runtime.
    forceContinuationHardening      false;                 // Ignore the feasibility gate and always harden continuation.
    forceContinuationHardeningUntilIter 0;                 // Keep hardening forced until this iteration.
    forceContinuationHardeningUntilBeta -1;                // Keep hardening forced until beta reaches this value.
    stopContinuationHardeningBelowGrayFraction 0.10;       // Fully stop hardening once gray is already low enough.
    lateStageStrictGateBelowGrayFraction 0.14;             // Switch to a stricter power-feasibility gate below this gray level.
    lateStageContinuationFeasibilityTol 0.98;              // Stricter late-stage PowerDiss/limit tolerance.
    lateStageRefinementStartIter   140;                    // Enter late refinement before the branch scaffold freezes so sub-branch seeds can still bifurcate.
    lateStageRefinementBelowGrayFraction 0.24;             // Trigger late refinement while the run still carries enough gray to finish binary side-branch formation.
    lateStageBetaRampFactor        0.15;                   // Slow late beta growth so candidate sub-branches do not collapse back into gray halos.
    lateStageAlphaRampFactor       1.0;                    // Replace late alpha growth factor during refinement.
    lateStageMaxBeta               26;                     // Lower the late beta ceiling to preserve carveable gray at branch split points.
    lateStageFilterRStartIter      110;                    // Trigger the smaller late filter earlier while the channel skeleton is still actively evolving.
    lateStageFilterRCap            5.0;                    // Narrower late-stage filter radius to trim oversized solid blocks and ribs.
    laggingGrayCollapseStartIter   140;                    // Start checking for stalled gray collapse from this iteration.
    laggingGrayCollapseAboveGrayFraction 0.30;             // Only treat the run as stalled while gray is still this high.
    laggingGrayCollapseBelowXhStepMax 0.06;                // Stagnation test: topology motion is too small below this xhStepMax.
    laggingGrayCollapseMinGrayDrop 5e-3;                   // Stagnation test: gray is barely decreasing below this per-step drop.
    laggingGrayCollapsePauseInterval 4;                    // Even when throttled, allow one hardening pulse every N steps.
    overactiveTopologyStartIter    140;                    // Start damping hardening as soon as the late branch-refinement window begins.
    overactiveTopologyBelowGrayFraction 0.45;              // Apply the overactive throttle while the late run is still carrying gray sub-branch candidates.
    overactiveTopologyAboveXhStepMax 0.60;                 // Pause extra hardening only during the violent branch-flicker regime seen in the xh sequence.
}

adjointControl
{
    adjointMomentumSweeps           30;                    // Slightly higher adjoint fidelity for stronger late-stage branch sensitivities.
    adjointExplicitStressScale      0.30;                  // Conservative increase to strengthen the symmetric-stress contribution without reverting to runaway.
    resetAdjointsEachIteration      true;                  // Reinitialize adjoints each loop for robustness.
    stopOnAdjointRunaway            true;                  // Abort optimization if adjoint magnitudes blow up.
}

convergenceControl
{
    optPowerConstraintWeight        2.0;                   // Relative penalty weight on power-constraint violation.
    optPowerViolationScaleExponent  1.0;                   // Nonlinear scaling exponent for power-violation weighting.
}

// * * * * * * * * * * * * * * * * * * * * * * * * * * * * * * * * * * * * * //
